$DATA1 SOURCE='PrimeSim HSPICE' VERSION='T-2022.06-SP1-1 linux64' PARAM_COUNT=0
.TITLE '.title '6t sram cell read operation using ucsb 2d cryo cmos''
 maxvd            snm              temper           alter#          
    0.1384         9.788e-02         25.0000        1               
