$DATA1 SOURCE='PrimeSim HSPICE' VERSION='T-2022.06-SP1-1 linux64' PARAM_COUNT=0
.TITLE 'title 'inv''
 delaylh          delayhl          delay_eq         p_avg           
 temper           alter#          
  2.126e-11        2.179e-11        2.152e-11        5.264e-10      
   25.0000        1               
