$DATA1 SOURCE='PrimeSim HSPICE' VERSION='T-2022.06-SP1-1 linux64' PARAM_COUNT=0
.TITLE '.title '6t sram cell write operation using ucsb 2d cryo cmos''
 avg_curr         ewrite           temper           alter#          
 -5.752e-08        2.644e-16         25.0000        1               
