$DATA1 SOURCE='PrimeSim HSPICE' VERSION='T-2022.06-SP1-1 linux64' PARAM_COUNT=0
.TITLE '.title '6t sram cell read operation using ucsb 2d cryo cmos''
 avg_curr         ewrite           temper           alter#          
 -1.125e-06        2.701e-15         25.0000        1               
