$DATA1 SOURCE='PrimeSim HSPICE' VERSION='T-2022.06-SP1-1 linux64' PARAM_COUNT=0
.TITLE '.title '6t sram cell write operation using ucsb 2d cryo cmos''
 avg_curr         avg_power        temper           alter#          
 -2.662e-06       -3.993e-06         25.0000        1               
